/*--------------------------------*- C++ -*----------------------------------*\
| =========                 |                                                 |
| \\      /  F ield         | OpenFOAM: The Open Source CFD Toolbox           |
|  \\    /   O peration     | Version:  v2412                                 |
|   \\  /    A nd           | Website:  www.openfoam.com                      |
|    \\/     M anipulation  |                                                 |
\*---------------------------------------------------------------------------*/
FoamFile
{
    version     2.0;
    format      ascii;
    class       volScalarField;
    object      p;
}
// * * * * * * * * * * * * * * * * * * * * * * * * * * * * * * * * * * * * * //

//              [Kg m s K mol Cd A] > Kilogram, meter, second, mole, Candela, Ampere
dimensions      [1 -1 -2 0 0 0 0]; // Pressure dimensions in Pascal

internalField   uniform 1; // Initialize pressure to 1 Pascal in the entire geometry

boundaryField
{
    inlet
    {
        type            fixedValue;
        value           uniform 1; // Fix inlet pressure to 1 Pascal
    }

    outlet
    {
        type            waveTransmissive;
        field           p;
        psi             thermo:psi;
        gamma           1.4;
        fieldInf        1;
        lInf            3;
        value           uniform 1;
    }

    bottom
    {
        type            symmetryPlane;
    }

    top
    {
        type            symmetryPlane;
    }

    obstacle
    {
        type            zeroGradient;
    }

    defaultFaces
    {
        type            empty;
    }
}


// ************************************************************************* //
